This namelist contains various input parameters for HYDRO runs

&RUN
tend=10
noutput=10
#nstepmax=5
#dtoutput=.1
/

&MESH
nx=10
ny=10
nxystep=4
prt=0
dx=0.05
boundary_left=1
boundary_right=1
boundary_down=1
boundary_up=1
testcase=0
/

&HYDRO
courant_factor=0.8
niter_riemann=2
/
